FoamFile
{
  version    2.0;
  format    ascii;
  class    dictionary;
  object    blockMeshDict;
}
convertToMeters    1;
vertices
(
  (-55.3 107.5 0)
  (-55.3 -57.49999999999999 0)
  (79.7 -57.49999999999999 0)
  (79.7 107.5 0)
  (-55.3 107.5 60)
  (-55.3 -57.49999999999999 60)
  (79.7 -57.49999999999999 60)
  (79.7 107.5 60)
);
blocks
(
  hex (0 1 2 3 4 5 6 7)
  (
    11
    9
    4
  )
  simpleGrading (1 1 1)
);
edges
(
);
boundary
(
  left
  {
    type    patch;
    faces
    (
      (0 3 7 4)
    );
  }
  right
  {
    type    patch;
    faces
    (
      (1 5 6 2)
    );
  }
  back
  {
    type    patch;
    faces
    (
      (3 2 6 7)
    );
  }
  front
  {
    type    patch;
    faces
    (
      (0 4 5 1)
    );
  }
  terrain
  {
    type    wall;
    faces
    (
      (0 1 2 3)
    );
  }
  top
  {
    type    patch;
    faces
    (
      (4 7 6 5)
    );
  }
);
mergePatchPairs
(
);
