FoamFile
{
  version    2.0;
  format    ascii;
  class    dictionary;
  object    surfaceFeaturesDict;
}
surfaces    ("buildings.stl" "terrain.obj" );
includedAngle    90;
subsetFeatures
{
  nonManifoldEdges    no;
  openEdges    yes;
}
#includeEtc    "caseDicts/surface/surfaceFeaturesDict.cfg";
