/*--------------------------------*- C++ -*----------------------------------*\
  =========                 |
  \\      /  F ield         | OpenFOAM: The Open Source CFD Toolbox
   \\    /   O peration     | Website:  https://openfoam.org
    \\  /    A nd           | Version:  8
     \\/     M anipulation  |
\*---------------------------------------------------------------------------*/
/*   Windows 32 and 64 bit porting by blueCAPE: http://www.bluecape.com.pt   *\
|  Based on Windows porting (2.0.x v4) by Symscape: http://www.symscape.com   |
\*---------------------------------------------------------------------------*/
FoamFile
{
    version     0.0;
    format      ascii;
    class       polyBoundaryMesh;
    location    "constant/terrain/polyMesh";
    object      boundary;
}
// * * * * * * * * * * * * * * * * * * * * * * * * * * * * * * * * * * * * * //


3
(
    terrain_to_air
    {
        type            mappedWall;
        nFaces          44550;
        startFace       2176950;
        sampleMode      nearestPatchFace;
        sampleRegion    air;
        samplePatch     terrain;
        offsetMode      uniform;
        offset          ( 0 0 0 );
    }

    terrain_sides
    {
        type            patch;
        nFaces          12000;
        startFace       2221500;
    }

    terrain_bottom
    {
        type            patch;
        nFaces          44550;
        startFace       2233500;
    }

)


// ************************************************************************* //
