FoamFile
{
  version    2.0;
  format    ascii;
  class    dictionary;
  object    changeDictionaryDict;
}
boundary
{
  terrain_to_air
  {
    type    mappedWall;
    sampleMode    nearestPatchFace;
    sampleRegion    air;
    samplePatch    terrain;
    offsetMode    uniform;
    offset    (0 0 0);
  }
}
