FoamFile
{
  version    2.0;
  format    ascii;
  class    dictionary;
  object    topoSetDict;
}
actions
(
  {
    name    ground_layer1;
    type    cellSet;
    action    new;
    source    rotatedBoxToCell;
    sourceInfo
    {
      origin    (-55.3 107.5 -2);
      i    (0 -165 0);
      j    (135 0 0);
      k    (0 0 30.7);
    }
  }
  {
    name    ground_layer1;
    type    cellSet;
    action    delete;
    source    cellToCell;
    sourceInfo
    {
      set    addedCells_layer2;
    }
  }
  {
    name    ground_layer1;
    type    cellZoneSet;
    action    new;
    source    setToCellZone;
    sourceInfo
    {
      set    ground_layer1;
    }
  }
  {
    name    ground_layer2;
    type    cellZoneSet;
    action    new;
    source    setToCellZone;
    sourceInfo
    {
      set    addedCells_layer2;
    }
  }
);
