/*--------------------------------*- C++ -*----------------------------------*\
  =========                 |
  \\      /  F ield         | OpenFOAM: The Open Source CFD Toolbox
   \\    /   O peration     | Website:  https://openfoam.org
    \\  /    A nd           | Version:  8
     \\/     M anipulation  |
\*---------------------------------------------------------------------------*/
/*   Windows 32 and 64 bit porting by blueCAPE: http://www.bluecape.com.pt   *\
|  Based on Windows porting (2.0.x v4) by Symscape: http://www.symscape.com   |
\*---------------------------------------------------------------------------*/
FoamFile
{
    version     0.0;
    format      ascii;
    class       polyBoundaryMesh;
    location    "constant/vegetation/polyMesh";
    object      boundary;
}
// * * * * * * * * * * * * * * * * * * * * * * * * * * * * * * * * * * * * * //


8
(
    left
    {
        type            mappedPatch;
        nFaces          36;
        startFace       128641;
        sampleMode      nearestPatchFace;
        sampleRegion    air;
        samplePatch     left;
        offsetMode      uniform;
        offset          ( 0 0 0 );
    }

    right
    {
        type            mappedPatch;
        nFaces          36;
        startFace       128677;
        sampleMode      nearestPatchFace;
        sampleRegion    air;
        samplePatch     right;
        offsetMode      uniform;
        offset          ( 0 0 0 );
    }

    back
    {
        type            mappedPatch;
        nFaces          44;
        startFace       128713;
        sampleMode      nearestPatchFace;
        sampleRegion    air;
        samplePatch     back;
        offsetMode      uniform;
        offset          ( 0 0 0 );
    }

    front
    {
        type            mappedPatch;
        nFaces          44;
        startFace       128757;
        sampleMode      nearestPatchFace;
        sampleRegion    air;
        samplePatch     front;
        offsetMode      uniform;
        offset          ( 0 0 0 );
    }

    terrain
    {
        type            mappedWall;
        inGroups        List<word> 0();
        nFaces          2382;
        startFace       128801;
        sampleMode      nearestPatchFace;
        sampleRegion    air;
        samplePatch     terrain;
        offsetMode      uniform;
        offset          ( 0 0 0 );
    }

    top
    {
        type            mappedPatch;
        nFaces          99;
        startFace       131183;
        sampleMode      nearestPatchFace;
        sampleRegion    air;
        samplePatch     top;
        offsetMode      uniform;
        offset          ( 0 0 0 );
    }

    buildings
    {
        type            mappedWall;
        inGroups        List<word> 0();
        nFaces          8629;
        startFace       131282;
        sampleMode      nearestPatchFace;
        sampleRegion    air;
        samplePatch     buildings;
        offsetMode      uniform;
        offset          ( 0 0 0 );
    }

    air_to_vegetation
    {
        type            mappedWall;
        inGroups        List<word> 0();
        nFaces          1891;
        startFace       139911;
        sampleMode      nearestCell;
        sampleRegion    air;
        offsetMode      uniform;
        offset          ( 0 0 0 );
    }

)


// ************************************************************************* //
